*HEADING
**
**
*NODE, NSET=INIT_NODES
       1,                     100.,                       0.,                     0
       2,                 99.01083,                1.607E-15,                 2.826198
       3,                 99.01083,                 3.030303,                 2.826198
       4,                     100.,                 3.030303,                       0.
       5,                 98.02166,                3.213E-15,                 5.652396
       6,                 98.02166,                 3.030303,                 5.652396
       7,                 99.01083,                 6.060606,                 2.826198
       8,                     100.,                 6.060606,                       0.
       9,                 97.03249,                 4.82E-15,                 8.478594
      10,                 97.03249,                 3.030303,                 8.478594
      11,                 98.02166,                 6.060606,                 5.652396
      12,                 96.04332,                6.426E-15,                 11.30479
      13,                 96.04332,                 3.030303,                 11.30479
      14,                 99.01083,                 9.090909,                 2.826198
      15,                     100.,                 9.090909,                       0.
      16,                 97.03249,                 6.060606,                 8.478594
      17,                 95.05415,                8.033E-15,                 14.13099
      18,                 95.05415,                 3.030303,                 14.13099
      19,                 98.02166,                 9.090909,                 5.652396
      20,                 96.04332,                 6.060606,                 11.30479
** ... 197 like lines cut
**
     218,                 76.25994,                3.856E-14,                 67.82875
     219,                 76.25994,                 3.030303,                 67.82875
     220,                 99.01083,                 45.45455,                 2.826198
     221,                     100.,                 45.45455,                       0.
     222,                 94.06498,                 36.36364,                 16.95719
     223,                 89.11914,                 27.27273,                 31.08818
     224,                 84.17329,                 18.18182,                 45.21917
     225,                 79.22744,                 9.090909,                 59.35016
     226,                 97.03249,                 42.42424,                 8.478594
     227,                 92.08665,                 33.33333,                 22.60958
     228,                  87.1408,                 24.24242,                 36.74058
     229,                 82.19495,                 15.15152,                 50.87157
     230,                 77.24911,                 6.060606,                 65.00256
     231,                 95.05415,                 39.39394,                 14.13099
     232,                 90.10831,                 30.30303,                 28.26198
     233,                 85.16246,                 21.21212,                 42.39297
     234,                 80.21661,                 12.12121,                 56.52396
     235,                 75.27077,                4.016E-14,                 70.65495
     236,                 75.27077,                 3.030303,                 70.65495
     237,                 98.02166,                 45.45455,                 5.652396
*Node
     238,                 93.07581,                 36.36364,                 19.78339
     239,                 88.12997,                 27.27273,                 33.91438
     240,                 83.18412,                 18.18182,                 48.04537
     241,                 78.23827,                 9.090909,                 62.17636
     242,                 96.04332,                 42.42424,                 11.30479
     243,                 91.09748,                 33.33333,                 25.43578
     244,                 86.15163,                 24.24242,                 39.56677
     245,                 81.20578,                 15.15152,                 53.69776
     246,                 76.25994,                 6.060606,                 67.82875
     247,                 99.01083,                 48.48485,                 2.826198
     248,                     100.,                 48.48485,                       0.
     249,                 94.06498,                 39.39394,                 16.95719
     250,                 89.11914,                 30.30303,                 31.08818
     251,                 84.17329,                 21.21212,                 45.21917
     252,                 79.22744,                 12.12121,                 59.35016
     253,                  74.2816,                4.177E-14,                 73.48115
     254,                  74.2816,                 3.030303,                 73.48115
     255,                 97.03249,                 45.45455,                 8.478594
     256,                 92.08665,                 36.36364,                 22.60958
     257,                  87.1408,                 27.27273,                 36.74058
** ... 3918 like lines cut
*NodE
    4176,                 14.66907,                 3.030303,                 185.5091
    4177,                 -30.3292,                 57.57576,                 177.0826
    4178,                 -14.6691,                 33.33333,                 185.5091
    4179,                 -40.3148,                 78.78788,                 166.0974
    4180,                 -22.8902,                 45.45455,                 182.0227
    4181,                 -44.5248,                 90.90909,                 158.2223
    4182,                 -34.7271,                 66.66667,                 173.0632
    4183,                 -11.8028,                 30.30303,                 186.3261
    4184,                 11.80283,                 6.060606,                 186.3261
    4185,                 -27.9528,                 54.54545,                 178.8814
    4186,                 -43.2844,                 87.87879,                 160.9323
    4187,                 -20.2234,                 42.42424,                 183.3533
    4188,                 -8.89166,                 27.27273,                 186.9648
    4189,                 -38.5968,                 75.75758,                 168.5329
    4190,                 8.891659,                 9.090909,                 186.9648
    4191,                 -5.94664,                 24.24242,                 187.4228
    4192,                 -32.5902,                 63.63636,                 175.1408
    4193,                 17.47948,                1.049E-13,                 184.5169
    4194,                 17.47948,                 3.030303,                 184.5169
    4195,                 5.946643,                 12.12121,                 187.4228
** ... 582 like lines cut
**
** MEMBRANE and STRUCTURAL ELEMENTS
**
*element, TYPE=S4, ELSET=P1;ELSET_MAT
      92,      109,      108,      119,      120
     103,      120,      119,      132,      133
     110,      128,      109,      120,      140
     114,      133,      132,      144,      145
     122,      140,      120,      133,      154
     126,      145,      144,      158,      159
     130,      150,      128,      140,      163
     134,      154,      133,      145,      167
     139,      159,      158,      173,      174
     143,      163,      140,      154,      178
     147,      167,      145,      159,      182
     151,      172,      150,      163,      186
     152,      174,      173,      187,      188
     156,      178,      154,      167,      192
     161,      182,      159,      174,      198
     165,      186,      163,      178,      202
     166,      188,      187,      203,      204
     170,      192,      167,      182,      208
     174,      197,      172,      186,      212
     175,      198,      174,      188,      213
** ... 4404 like lines cut
*NoDe
    4778,                 5.946643,                 63.63636,                 187.4228
    4779,                 22.89025,                 51.51515,                 182.0227
    4780,                 -2.97899,                 72.72727,                 187.6982
    4781,                 36.73185,                 48.48485,                 170.8577
    4782,                 2.978991,                 66.66667,                 187.6982
    4783,                 1.58E-12,                 69.69697,                 187.7902
    4784,                 -17.4795,                 90.90909,                 184.5169
    4785,                 32.59021,                 48.48485,                 175.1408
    4786,                 34.72712,                 48.48485,                 173.0632
    4787,                  41.8793,                 51.51515,                 163.5607
    4788,                  44.5248,                 54.54545,                 158.2223
    4789,                 14.66907,                 57.57576,                 185.5091
    4790,                 -14.6691,                 87.87879,                 185.5091
    4791,                 25.47001,                 51.51515,                 180.5302
    4792,                 -22.8902,                     100.,                 182.0227
    4793,                 20.22335,                 54.54545,                 183.3533
    4794,                 40.31476,                 51.51515,                 166.0974
    4795,                 -11.8028,                 84.84848,                 186.3261
    4796,                 11.80283,                 60.60606,                 186.3261
    4797,                 27.95283,                 51.51515,                 178.8814
** ... 337 like lines cut
*ELEMENT, TYPE=S3R, ELSET=P1;ELSET_MAT
    2176,     2319,     2294,     2320
    2200,     2344,     2320,     2345
    2207,     2353,     2293,     2319
    2225,     2371,     2345,     2372
    2232,     2379,     2319,     2344
    2239,     2387,     2326,     2353
    2251,     2399,     2372,     2400
    2258,     2407,     2344,     2371
    2265,     2414,     2353,     2379
    2272,     2422,     2359,     2387
    2284,     2434,     2371,     2399
    2291,     2441,     2379,     2407
    2298,     2448,     2387,     2414
    2305,     2456,     2393,     2422
    2317,     2468,     2407,     2434
    2324,     2475,     2414,     2441
    2331,     2482,     2422,     2448
    2338,     2490,     2428,     2456
    2350,     2502,     2441,     2468
    2357,     2509,     2448,     2475
** ... 36 like lines cut
*ELEMENT, TYPE=S4, ELSET=P2;ELSET_MAT
       1,        4,        1,        2,        3
       2,        3,        2,        5,        6
       3,        8,        4,        3,        7
       4,        6,        5,        9,       10
       5,        7,        3,        6,       11
       6,       10,        9,       12,       13
       7,       15,        8,        7,       14
       8,       11,        6,       10,       16
       9,       13,       12,       17,       18
      10,       14,        7,       11,       19
      11,       16,       10,       13,       20
      12,       22,       15,       14,       21
      13,       18,       17,       23,       24
      14,       19,       11,       16,       25
      15,       20,       13,       18,       26
      16,       21,       14,       19,       27
      17,       24,       23,       28,       29
      18,       25,       16,       20,       30
      19,       32,       22,       21,       31
      20,       26,       18,       24,       33
** ... 457 like lines cut
*ELEMENT, TYPE=S3R, ELSET=P2;ELSET_MAT
    1816,     1906,     1908,     1907
    1817,     1907,     1910,     1909
    1818,     1911,     1907,     1912
    1819,     1909,     1914,     1913
    1820,     1912,     1909,     1915
    1821,     1916,     1912,     1917
    1823,     1915,     1913,     1920
    1824,     1917,     1915,     1921
    1825,     1922,     1917,     1923
    1828,     1921,     1920,     1927
    1829,     1923,     1921,     1928
    1831,     1931,     1923,     1932
    1834,     1928,     1927,     1935
    1836,     1932,     1928,     1938
    1838,     1940,     1932,     1941
    1842,     1938,     1935,     1946
    1844,     1941,     1938,     1948
    1846,     1950,     1941,     1951
    1851,     1948,     1946,     1957
    1853,     1951,     1948,     1959
** ... 22 like lines cut
**
** 
**
**
** 
**
**
** SECTION DATA
**
*SHELL SECTION, ELSET=P1;ELSET_MAT, MATERIAL=M1;MAT, DENSITY=0.
                     0.8,
*SHELL SECTION, ELSET=P2;ELSET_MAT, MATERIAL=M1;MAT, DENSITY=0.
                     0.8,
**
** MATERIALS
**
**
**M1;MAT
**
*MATERIAL, NAME=M1;MAT
*DENSITY
                      1.,
*ELASTIC, TYPE=ISOTROPIC
                  40000.,                      0.3
**
** 
**
** 
** SETS
** 
*NSET, NSET=Start_Nodes
       1,        2,        3,        4,        5,        6,        7,        8,        9,       10,
      11,       12,       13,       14,       15,       16,       17,       18,       19,       20,
      21,       22
*NSET, NSET=LOAD_SET
    4075,     4076,     4098,     4121,     4145,     4170,     4198,     4232,     4276,     4317,
    4355,     4392,     4429,     4465,     4500,     4534,     4568,     4601,     4633,     4664,
    4695,     4725,     4754,     4783,     4811,     4838,     4864,     4890,     4915,     4939,
    4962,     4984,     5005,     5025
*NSET, NSET=DOF_3
       1,        4,        8,       15,       22,       32,       44,       56,       71,       88,
     105,      125,      147,      169,      194,      221,      248,      278,      310,      342,
     377,      412,      450,      490,      530,      573,      618,      663,      711,      761,
     811,      864,      919,      974,     1905,     1908,     1910,     1914,     1919,     1925,
    1930,     1937,     1945,     1954,     1964,     1973,     1984,     1996,     2009,     2023,
    2036,     2051,     2067,     2084,     2102,     2119,     2138,     2158,     2179,     2201,
    2222,     2245,     2269,     2294,     2320,     2345,     2372,     2400
*NSET, NSET=DOF_2
       1,      974,     1905,     2400
*NSET, NSET=DOF_1
       1,      974
*NSET, NSET=SET4
    1723,     1728,     1733,     1738,     1742,     1747,     1751,     1752,     1756
**
** STEPS
**
**
** STEP 1
**
*STEP, NAME=STEP-1
*STATIC
**
** CLOAD
**
*CLOAD
LOAD_SET,        3,                      -1.
**
** BOUNDARY
**
*BOUNDARY, TYPE=DISPLACEMENT
DOF_3,        3,         ,                       0.
DOF_2,        2,         ,                       0.
DOF_1,        1,         ,                       0.
*NODE PRINT
U,
*END STEP
